*Quasar compiled model file

.model nmos_rvt nmos level = 72
+version = 107.0     	bulkmod = 1.0       	igcmod  = 1.0       	igbmod  = 0.0       
+gidlmod = 1.0       	iimod   = 0.0       	geomod  = 1.0       	rdsmod  = 0.0       
+rgatemod= 0.0       	rgeomod = 0.0       	shmod   = 0.0       	nqsmod  = 0.0       
+coremod = 0.0       	cgeomod = 0.0       	capmod  = 0.0       	tnom    = 25.0      
+eot     = 7.5e-10   	eotbox  = 1.4e-07   	eotacc  = 1e-10     	tfin    = 7e-09     
+toxp    = 2.1e-09   	nbody   = 1e+22     	phig    = 4.372     	epsrox  = 3.9       
+epsrsub = 11.9      	easub   = 4.05      	ni0sub  = 1.1e+16   	bg0sub  = 1.17      
+nc0sub  = 2.86e+25  	nsd     = 2e+26     	ngate   = 0.0       	nseg    = 5.0       
+l       = 2.1e-08   	xl      = -5e-10    	lint    = -2e-09    	dlc     = 0.0       
+dlbin   = 0.0       	hfin    = 3.4e-08   	deltaw  = 0.0       	deltawcv= 0.0       
+sdterm  = 0.0       	epsrsp  = 3.9       
+toxg    = 1.8e-09   
+cit     = 0.0       	cdsc    = 0.01      	cdscd   = 0.01      	dvt0    = 0.05      
+dvt1    = 0.48      	phin    = 0.05      	eta0    = 0.062     	dsub    = 0.338     
+k1rsce  = 0.0       	lpe0    = 0.0       	dvtshift= 0.0       	qmfactor= 2.5       
+etaqm   = 0.54      	qm0     = 0.001     	pqm     = 0.66      	u0      = 0.0262    
+etamob  = 2.0       	up      = 0.0       	ua      = 0.55      	eu      = 1.2       
+ud      = 0.0       	ucs     = 1.0       	rdswmin = 0.0       	rdsw    = 190.0     
+wr      = 1.0       	rswmin  = 0.0       	rdwmin  = 0.0       	rshs    = 0.0       
+rshd    = 0.0       	vsat    = 70000.0   	deltavsat= 0.28      	ksativ  = 2.0       
+mexp    = 4.0       	ptwg    = 30.0      	pclm    = 0.05      	pclmg   = 0.0       
+pdibl1  = 0.0       	pdibl2  = 0.002     	drout   = 1.0       	pvag    = 0.0       
+fpitch  = 2.7e-08   	rth0    = 0.225     	cth0    = 1.243e-06 	wth0    = 2.6e-07   
+lcdscd  = 5e-05     	lcdscdr = 5e-05     	lrdsw   = 0.2       	lvsat   = 0.0       
+aigc    = 0.014     	bigc    = 0.005     	cigc    = 0.25      	dlcigs  = 1e-09     
+dlcigd  = 1e-09     	aigs    = 0.0115    	aigd    = 0.0115    	bigs    = 0.00332   
+bigd    = 0.00332   	cigs    = 0.35      	cigd    = 0.35      	poxedge = 1.1       
+agidl   = 1e-12     	agisl   = 1e-12     	bgidl   = 10000000.0	bgisl   = 10000000.0
+egidl   = 0.35      	egisl   = 0.35      
+cfs     = 0.0       	cfd     = 0.0       	cgso    = 1.6e-10   	cgdo    = 1.6e-10   
+cgsl    = 0.0       	cgdl    = 0.0       	ckappas = 0.6       	ckappad = 0.6       
+cgbo    = 0.0       	cgbl    = 0.0       
+tbgasub = 0.000473  	tbgbsub = 636.0     	kt1     = 0.0       	kt1l    = 0.0       
+ute     = -0.7      	utl     = 0.0       	ua1     = 0.001032  	ud1     = 0.0       
+ucste   = -0.004775 	at      = 0.001     	ptwgt   = 0.004     	tmexp   = 0.0       
+prt     = 0.0       	tgidl   = -0.007    	igt     = 2.5       

.model pmos_rvt pmos level = 72
+version = 107.0     	bulkmod = 1.0       	igcmod  = 1.0       	igbmod  = 0.0       
+gidlmod = 1.0       	iimod   = 0.0       	geomod  = 1.0       	rdsmod  = 0.0       
+rgatemod= 0.0       	rgeomod = 0.0       	shmod   = 0.0       	nqsmod  = 0.0       
+coremod = 0.0       	cgeomod = 0.0       	capmod  = 0.0       	tnom    = 25.0      
+eot     = 7.5e-10   	eotbox  = 1.4e-07   	eotacc  = 3e-10     	tfin    = 7e-09     
+toxp    = 2.1e-09   	nbody   = 1e+22     	phig    = 4.8108    	epsrox  = 3.9       
+epsrsub = 11.9      	easub   = 4.05      	ni0sub  = 1.1e+16   	bg0sub  = 1.17      
+nc0sub  = 2.86e+25  	nsd     = 2e+26     	ngate   = 0.0       	nseg    = 5.0       
+l       = 2.1e-08   	xl      = -5e-10    	lint    = -2.5e-09  	dlc     = 0.0       
+dlbin   = 0.0       	hfin    = 3.4e-08   	deltaw  = 0.0       	deltawcv= 0.0       
+sdterm  = 0.0       	epsrsp  = 3.9       
+toxg    = 1.9e-09   
+cit     = 0.0       	cdsc    = 0.003469  	cdscd   = 0.001486  	dvt0    = 0.05      
+dvt1    = 0.4       	phin    = 0.05      	eta0    = 0.09      	dsub    = 0.228     
+k1rsce  = 0.0       	lpe0    = 0.0       	dvtshift= 0.0       	qmfactor= 0.0       
+etaqm   = 0.54      	qm0     = 2.183e-12 	pqm     = 0.66      	u0      = 0.0219    
+etamob  = 4.0       	up      = 0.0       	ua      = 1.133     	eu      = 0.05      
+ud      = 0.0105    	ucs     = 0.2672    	rdswmin = 0.0       	rdsw    = 190.0     
+wr      = 1.0       	rswmin  = 0.0       	rdwmin  = 0.0       	rshs    = 0.0       
+rshd    = 0.0       	vsat    = 60000.0   	deltavsat= 0.22      	ksativ  = 1.592     
+mexp    = 2.491     	ptwg    = 25.0      	pclm    = 0.01      	pclmg   = 1.0       
+pdibl1  = 800.0     	pdibl2  = 0.005704  	drout   = 4.97      	pvag    = 200.0     
+fpitch  = 2.7e-08   	rth0    = 0.15      	cth0    = 1.243e-06 	wth0    = 2.6e-07   
+lcdscd  = 0.0       	lcdscdr = 0.0       	lrdsw   = 1.3       	lvsat   = 1441.0    
+aigc    = 0.007     	bigc    = 0.0015    	cigc    = 1.0       	dlcigs  = 5e-09     
+dlcigd  = 5e-09     	aigs    = 0.006     	aigd    = 0.006     	bigs    = 0.001944  
+bigd    = 0.001944  	cigs    = 1.0       	cigd    = 1.0       	poxedge = 1.152     
+agidl   = 2e-12     	agisl   = 2e-12     	bgidl   = 150000000.0	bgisl   = 150000000.0
+egidl   = 1.142     	egisl   = 1.142     
+cfs     = 0.0       	cfd     = 0.0       	cgso    = 1.6e-10   	cgdo    = 1.6e-10   
+cgsl    = 0.0       	cgdl    = 0.0       	ckappas = 0.6       	ckappad = 0.6       
+cgbo    = 0.0       	cgbl    = 0.0       
+tbgasub = 0.000473  	tbgbsub = 636.0     	kt1     = 0.0       	kt1l    = 0.0       
+ute     = -1.2      	utl     = 0.0       	ua1     = 0.001032  	ud1     = 0.0       
+ucste   = -0.004775 	at      = 0.001     	ptwgt   = 0.004     	tmexp   = 0.0       
+prt     = 0.0       	tgidl   = -0.007    	igt     = 2.5       

