*Quasar compiled model file

.model nmos nmos level = 54
+version = 4.0       	binunit = 1.0       	paramchk= 1.0       	mobmod  = 0.0       
+capmod  = 2.0       	igcmod  = 1.0       	igbmod  = 1.0       	geomod  = 1.0       
+diomod  = 1.0       	rdsmod  = 0.0       	rbodymod= 1.0       	rgatemod= 1.0       
+permod  = 1.0       	acnqsmod= 0.0       	trnqsmod= 0.0       
+tnom    = 27.0      	toxe    = 1.15e-09  	toxp    = 9e-10     	toxm    = 1.15e-09  
+dtox    = 2.5e-10   	epsrox  = 3.9       	wint    = 5e-09     	lint    = 2.7e-09   
+ll      = 0.0       	wl      = 0.0       	lln     = 1.0       	wln     = 1.0       
+lw      = 0.0       	ww      = 0.0       	lwn     = 1.0       	wwn     = 1.0       
+lwl     = 0.0       	wwl     = 0.0       	xpart   = 0.0       	toxref  = 1.15e-09  
+xl	     = -1.4e-08  
+vth0    = vth0_nmos_param	k1      = 0.4       	k2      = 0.0       	k3      = 0.0       
+k3b     = 0.0       	w0      = 2.5e-06   	dvt0    = 1.0       	dvt1    = 2.0       
+dvt2    = 0.0       	dvt0w   = 0.0       	dvt1w   = 0.0       	dvt2w   = 0.0       
+dsub    = 0.1       	minv    = 0.05      	voffl   = 0.0       	dvtp0   = 1e-11     
+dvtp1   = 0.1       	lpe0    = 0.0       	lpeb    = 0.0       	xj      = 1e-08     
+ngate   = 1e+23     	ndep    = 4.12e+18  	nsd     = 2e+20     	phin    = 0.0       
+cdsc    = 0.0       	cdscb   = 0.0       	cdscd   = 0.0       	cit     = 0.0       
+voff    = -0.13     	nfactor = 2.508     	eta0    = 0.0048    	etab    = 0.0       
+vfb     = -0.55     	u0      = 0.05      	ua      = 6e-10     	ub      = 1.2e-18   
+uc      = 0.0       	vsat    = 210000.0  	a0      = 1.0       	ags     = 0.0       
+a1      = 0.0       	a2      = 1.0       	b0      = 0.0       	b1      = 0.0       
+keta    = 0.04      	dwg     = 0.0       	dwb     = 0.0       	pclm    = 0.02      
+pdiblc1 = 0.001     	pdiblc2 = 0.001     	pdiblcb = -0.005    	drout   = 0.5       
+pvag    = 1e-20     	delta   = 0.01      	pscbe1  = 814000000.0	pscbe2  = 1e-07     
+fprout  = 0.2       	pdits   = 0.01      	pditsd  = 0.23      	pditsl  = 2300000.0 
+rsh     = 5.0       	rdsw    = 150.0     	rsw     = 75.0      	rdw     = 75.0      
+rdswmin = 0.0       	rdwmin  = 0.0       	rswmin  = 0.0       	prwg    = 0.0       
+prwb    = 0.0       	wr      = 1.0       	alpha0  = 0.074     	alpha1  = 0.005     
+beta0   = 30.0      	agidl   = 0.0002    	bgidl   = 2100000000.0	cgidl   = 0.0002    
+egidl   = 0.8       	aigbacc = 0.012     	bigbacc = 0.0028    	cigbacc = 0.002     
+nigbacc = 1.0       	aigbinv = 0.014     	bigbinv = 0.004     	cigbinv = 0.004     
+eigbinv = 1.1       	nigbinv = 3.0       	aigc    = 0.020014  	bigc    = 0.0027432 
+cigc    = 0.002     	aigsd   = 0.020014  	bigsd   = 0.0027432 	cigsd   = 0.002     
+nigc    = 1.0       	poxedge = 1.0       	pigcd   = 1.0       	ntox    = 1.0       
+xrcrg1  = 12.0      	xrcrg2  = 5.0       
+cgso    = 8.5e-11   	cgdo    = 8.5e-11   	cgbo    = 2.56e-11  	cgdl    = 2.653e-10 
+cgsl    = 2.653e-10 	ckappas = 0.03      	ckappad = 0.03      	acde    = 1.0       
+moin    = 15.0      	noff    = 0.9       	voffcv  = 0.02      
+kt1     = -0.11     	kt1l    = 0.0       	kt2     = 0.022     	ute     = -1.5      
+ua1     = 4.31e-09  	ub1     = 7.61e-18  	uc1     = -5.6e-11  	prt     = 0.0       
+at      = 33000.0   
+fnoimod = 1.0       	tnoimod = 0.0       
+jss     = 0.0001    	jsws    = 1e-11     	jswgs   = 1e-10     	njs     = 1.0       
+ijthsfwd= 0.01      	ijthsrev= 0.001     	bvs     = 10.0      	xjbvs   = 1.0       
+jsd     = 0.0001    	jswd    = 1e-11     	jswgd   = 1e-10     	njd     = 1.0       
+ijthdfwd= 0.01      	ijthdrev= 0.001     	bvd     = 10.0      	xjbvd   = 1.0       
+pbs     = 1.0       	cjs     = 0.0005    	mjs     = 0.5       	pbsws   = 1.0       
+cjsws   = 5e-10     	mjsws   = 0.33      	pbswgs  = 1.0       	cjswgs  = 3e-10     
+mjswgs  = 0.33      	pbd     = 1.0       	cjd     = 0.0005    	mjd     = 0.5       
+pbswd   = 1.0       	cjswd   = 5e-10     	mjswd   = 0.33      	pbswgd  = 1.0       
+cjswgd  = 5e-10     	mjswgd  = 0.33      	tpb     = 0.005     	tcj     = 0.001     
+tpbsw   = 0.005     	tcjsw   = 0.001     	tpbswg  = 0.005     	tcjswg  = 0.001     
+xtis    = 3.0       	xtid    = 3.0       
+dmcg    = 0.0       	dmci    = 0.0       	dmdg    = 0.0       	dmcgt   = 0.0       
+dwj     = 0.0       	xgw     = 0.0       	xgl     = 0.0       
+rshg    = 0.4       	gbmin   = 1e-10     	rbpb    = 5.0       	rbpd    = 15.0      
+rbps    = 15.0      	rbdb    = 15.0      	rbsb    = 15.0      	ngcon   = 1.0       

.model pmos pmos level = 54
+version = 4.0       	binunit = 1.0       	paramchk= 1.0       	mobmod  = 0.0       
+capmod  = 2.0       	igcmod  = 1.0       	igbmod  = 1.0       	geomod  = 1.0       
+diomod  = 1.0       	rdsmod  = 0.0       	rbodymod= 1.0       	rgatemod= 1.0       
+permod  = 1.0       	acnqsmod= 0.0       	trnqsmod= 0.0       
+tnom    = 27.0      	toxe    = 1.2e-09   	toxp    = 9e-10     	toxm    = 1.2e-09   
+dtox    = 3e-10     	epsrox  = 3.9       	wint    = 5e-09     	lint    = 2.7e-09   
+ll      = 0.0       	wl      = 0.0       	lln     = 1.0       	wln     = 1.0       
+lw      = 0.0       	ww      = 0.0       	lwn     = 1.0       	wwn     = 1.0       
+lwl     = 0.0       	wwl     = 0.0       	xpart   = 0.0       	toxref  = 1.2e-09   
+xl	     = -1.4e-08  
+vth0    = vth0_pmos_param	k1      = 0.4       	k2      = -0.01     	k3      = 0.0       
+k3b     = 0.0       	w0      = 2.5e-06   	dvt0    = 1.0       	dvt1    = 2.0       
+dvt2    = -0.032    	dvt0w   = 0.0       	dvt1w   = 0.0       	dvt2w   = 0.0       
+dsub    = 0.1       	minv    = 0.05      	voffl   = 0.0       	dvtp0   = 1e-11     
+dvtp1   = 0.05      	lpe0    = 0.0       	lpeb    = 0.0       	xj      = 1e-08     
+ngate   = 1e+23     	ndep    = 3.07e+18  	nsd     = 2e+20     	phin    = 0.0       
+cdsc    = 0.0       	cdscb   = 0.0       	cdscd   = 0.0       	cit     = 0.0       
+voff    = -0.126    	nfactor = 2.1       	eta0    = 0.0048    	etab    = 0.0       
+vfb     = 0.55      	u0      = 0.014     	ua      = 2e-09     	ub      = 5e-19     
+uc      = 0.0       	vsat    = 180000.0  	a0      = 1.0       	ags     = 1e-20     
+a1      = 0.0       	a2      = 1.0       	b0      = 0.0       	b1      = 0.0       
+keta    = -0.047    	dwg     = 0.0       	dwb     = 0.0       	pclm    = 0.12      
+pdiblc1 = 0.001     	pdiblc2 = 0.001     	pdiblcb = 3.4e-08   	drout   = 0.56      
+pvag    = 1e-20     	delta   = 0.01      	pscbe1  = 814000000.0	pscbe2  = 9.58e-07  
+fprout  = 0.2       	pdits   = 0.08      	pditsd  = 0.23      	pditsl  = 2300000.0 
+rsh     = 5.0       	rdsw    = 150.0     	rsw     = 75.0      	rdw     = 75.0      
+rdswmin = 0.0       	rdwmin  = 0.0       	rswmin  = 0.0       	prwg    = 0.0       
+prwb    = 0.0       	wr      = 1.0       	alpha0  = 0.074     	alpha1  = 0.005     
+beta0   = 30.0      	agidl   = 0.0002    	bgidl   = 2100000000.0	cgidl   = 0.0002    
+egidl   = 0.8       	aigbacc = 0.012     	bigbacc = 0.0028    	cigbacc = 0.002     
+nigbacc = 1.0       	aigbinv = 0.014     	bigbinv = 0.004     	cigbinv = 0.004     
+eigbinv = 1.1       	nigbinv = 3.0       	aigc    = 0.020014  	bigc    = 0.0027432 
+cigc    = 0.002     	aigsd   = 0.020014  	bigsd   = 0.0027432 	cigsd   = 0.002     
+nigc    = 1.0       	poxedge = 1.0       	pigcd   = 1.0       	ntox    = 1.0       
+xrcrg1  = 12.0      	xrcrg2  = 5.0       
+cgso    = 8.5e-11   	cgdo    = 8.5e-11   	cgbo    = 2.56e-11  	cgdl    = 2.653e-10 
+cgsl    = 2.653e-10 	ckappas = 0.03      	ckappad = 0.03      	acde    = 1.0       
+moin    = 15.0      	noff    = 0.9       	voffcv  = 0.02      
+kt1     = -0.11     	kt1l    = 0.0       	kt2     = 0.022     	ute     = -1.5      
+ua1     = 4.31e-09  	ub1     = 7.61e-18  	uc1     = -5.6e-11  	prt     = 0.0       
+at      = 33000.0   
+fnoimod = 1.0       	tnoimod = 0.0       
+jss     = 0.0001    	jsws    = 1e-11     	jswgs   = 1e-10     	njs     = 1.0       
+ijthsfwd= 0.01      	ijthsrev= 0.001     	bvs     = 10.0      	xjbvs   = 1.0       
+jsd     = 0.0001    	jswd    = 1e-11     	jswgd   = 1e-10     	njd     = 1.0       
+ijthdfwd= 0.01      	ijthdrev= 0.001     	bvd     = 10.0      	xjbvd   = 1.0       
+pbs     = 1.0       	cjs     = 0.0005    	mjs     = 0.5       	pbsws   = 1.0       
+cjsws   = 5e-10     	mjsws   = 0.33      	pbswgs  = 1.0       	cjswgs  = 3e-10     
+mjswgs  = 0.33      	pbd     = 1.0       	cjd     = 0.0005    	mjd     = 0.5       
+pbswd   = 1.0       	cjswd   = 5e-10     	mjswd   = 0.33      	pbswgd  = 1.0       
+cjswgd  = 5e-10     	mjswgd  = 0.33      	tpb     = 0.005     	tcj     = 0.001     
+tpbsw   = 0.005     	tcjsw   = 0.001     	tpbswg  = 0.005     	tcjswg  = 0.001     
+xtis    = 3.0       	xtid    = 3.0       
+dmcg    = 0.0       	dmci    = 0.0       	dmdg    = 0.0       	dmcgt   = 0.0       
+dwj     = 0.0       	xgw     = 0.0       	xgl     = 0.0       
+rshg    = 0.4       	gbmin   = 1e-10     	rbpb    = 5.0       	rbpd    = 15.0      
+rbps    = 15.0      	rbdb    = 15.0      	rbsb    = 15.0      	ngcon   = 1.0       

